I"Ý/Users/Aisha/Desktop/Development/code051418/Module%202/rails-dynamic-request-readme-dumbo-web-051418/app/assets/stylesheets/application.css?type=text/css&id=250f83f87bc03a3c82187b6c946b873696361062ac340474270db1221e1043d8:ET