I"ê/Users/Aisha/Desktop/Development/code051418/Module%202/rails-dynamic-request-readme-dumbo-web-051418/app/assets/javascripts/application.js?type=application/javascript&id=089e217c74c4da0c0d538b1d0727189f2d9fedde3df21d0a6a10f3bcc01b33d2:ET