I"ë/Users/Aisha/Desktop/Development/code051418/Module%202/rails-dynamic-request-readme-dumbo-web-051418/app/assets/stylesheets/application.css?type=text/css&pipeline=self&id=0b4dade4afc6a735594e5170acdf27aa5feda539dd5c9817915bef9963471b34:ET