I"ø/Users/Aisha/Desktop/Development/code051418/Module%202/rails-dynamic-request-readme-dumbo-web-051418/app/assets/javascripts/application.js?type=application/javascript&pipeline=self&id=94b4643e34b946f9645be622389968557181db7f614d5d3461a901024ca5c2aa:ET